examples/ieee118_synthetic.xiidm
<?xml version="1.0" encoding="UTF-8"?>
<iidm:network xmlns:iidm="http://www.powsybl.org/schema/iidm/1_15" xmlns:apc="http://www.powsybl.org/schema/iidm/ext/active_power_control/1_2" xmlns:slt="http://www.powsybl.org/schema/iidm/ext/slack_terminal/1_5" xmlns:reft="http://www.powsybl.org/schema/iidm/ext/reference_terminals/1_0" id="network" caseDate="2026-03-16T14:03:05.389Z" forecastDistance="0" sourceFormat="" minimumValidationLevel="STEADY_STATE_HYPOTHESIS">
    <iidm:substation id="s">
        <iidm:voltageLevel id="sub_0" nominalV="380.0" lowVoltageLimit="361.0" highVoltageLimit="399.0" topologyKind="BUS_BREAKER">
            <iidm:busBreakerTopology>
                <iidm:bus id="bus_0" name="Bus_0" v="370.3136170386902" angle="-14.488209700971282"/>
            </iidm:busBreakerTopology>
            <iidm:load id="load_0_0" name="Load_0" loadType="UNDEFINED" p0="99.65232357502443" q0="0.0" bus="bus_0" connectableBus="bus_0" p="99.65232357502443" q="0.0"/>
        </iidm:voltageLevel>
        <iidm:voltageLevel id="sub_1" nominalV="380.0" lowVoltageLimit="361.0" highVoltageLimit="399.0" topologyKind="BUS_BREAKER">
            <iidm:busBreakerTopology>
                <iidm:bus id="bus_1" name="Bus_1" v="359.72178706648486" angle="-22.064623454720344"/>
            </iidm:busBreakerTopology>
            <iidm:generator id="gen_1_0" name="Gen_1" energySource="OTHER" minP="-4999.0" maxP="4999.0" voltageRegulatorOn="true" targetP="12.867682122768057" targetV="380.0" targetQ="0.0" bus="bus_1" connectableBus="bus_1" p="-12.867682122768057" q="-8.728957570441102">
                <iidm:minMaxReactiveLimits minQ="-1.833619516771961" maxQ="8.728957570441102"/>
            </iidm:generator>
        </iidm:voltageLevel>
        <iidm:voltageLevel id="sub_2" nominalV="380.0" lowVoltageLimit="361.0" highVoltageLimit="399.0" topologyKind="BUS_BREAKER">
            <iidm:busBreakerTopology>
                <iidm:bus id="bus_2" name="Bus_2" v="380.0" angle="-9.801345335056423"/>
            </iidm:busBreakerTopology>
            <iidm:generator id="gen_2_1" name="Gen_2" energySource="OTHER" minP="-4999.0" maxP="4999.0" voltageRegulatorOn="true" targetP="0.0" targetV="380.0" targetQ="0.0" bus="bus_2" connectableBus="bus_2" p="-0.0" q="-1.4656943710091852">
                <iidm:minMaxReactiveLimits minQ="-6.1223684516806305" maxQ="122.9089680201641"/>
            </iidm:generator>
        </iidm:voltageLevel>
        <iidm:voltageLevel id="sub_3" nominalV="380.0" lowVoltageLimit="361.0" highVoltageLimit="399.0" topologyKind="BUS_BREAKER">
            <iidm:busBreakerTopology>
                <iidm:bus id="bus_3" name="Bus_3" v="380.0" angle="-10.267401930950959"/>
            </iidm:busBreakerTopology>
            <iidm:generator id="gen_3_2" name="Gen_3" energySource="OTHER" minP="-4999.0" maxP="4999.0" voltageRegulatorOn="true" targetP="84.11975483106495" targetV="380.0" targetQ="0.0" bus="bus_3" connectableBus="bus_3" p="-84.11975483106495" q="-0.48522644353332645">
                <iidm:minMaxReactiveLimits minQ="-19.638816938949816" maxQ="57.64474238705943"/>
            </iidm:generator>
        </iidm:voltageLevel>
        <iidm:voltageLevel id="sub_4" nominalV="380.0" lowVoltageLimit="361.0" highVoltageLimit="399.0" topologyKind="BUS_BREAKER">
            <iidm:busBreakerTopology>
                <iidm:bus id="bus_4" name="Bus_4" v="380.0" angle="-9.092739043527523"/>
            </iidm:busBreakerTopology>
            <iidm:generator id="gen_4_3" name="Gen_4" energySource="OTHER" minP="-4999.0" maxP="4999.0" voltageRegulatorOn="true" targetP="80.86489891743709" targetV="380.0" targetQ="0.0" bus="bus_4" connectableBus="bus_4" p="-80.86489891743709" q="1.0808537864416934">
                <iidm:minMaxReactiveLimits minQ="-15.486883783055577" maxQ="37.44001147226946"/>
            </iidm:generator>
        </iidm:voltageLevel>
        <iidm:voltageLevel id="sub_5" nominalV="380.0" lowVoltageLimit="361.0" highVoltageLimit="399.0" topologyKind="BUS_BREAKER">
            <iidm:busBreakerTopology>
                <iidm:bus id="bus_5" name="Bus_5" v="380.0" angle="0.8509114271920142"/>
            </iidm:busBreakerTopology>
            <iidm:generator id="gen_5_4" name="Gen_5" energySource="OTHER" minP="-4999.0" maxP="4999.0" voltageRegulatorOn="true" targetP="130.2182676868832" targetV="380.0" targetQ="0.0" bus="bus_5" connectableBus="bus_5" p="-130.2182676868832" q="-2.54300234049758">
                <iidm:minMaxReactiveLimits minQ="-24.13512026433803" maxQ="64.08620183128463"/>
            </iidm:generator>
        </iidm:voltageLevel>
        <iidm:voltageLevel id="sub_6" nominalV="380.0" lowVoltageLimit="361.0" highVoltageLimit="399.0" topologyKind="BUS_BREAKER">
            <iidm:busBreakerTopology>
                <iidm:bus id="bus_6" name="Bus_6" v="378.913908114319" angle="-9.577070311324364"/>
            </iidm:busBreakerTopology>
            <iidm:load id="load_6_1" name="Load_6" loadType="UNDEFINED" p0="40.800573916588434" q0="0.0" bus="bus_6" connectableBus="bus_6" p="40.800573916588434" q="0.0"/>
        </iidm:voltageLevel>
        <iidm:voltageLevel id="sub_7" nominalV="380.0" lowVoltageLimit="361.0" highVoltageLimit="399.0" topologyKind="BUS_BREAKER">
            <iidm:busBreakerTopology>
                <iidm:bus id="bus_7" name="Bus_7" v="380.0" angle="5.663472125852956"/>
            </iidm:busBreakerTopology>
            <iidm:generator id="gen_7_5" name="Gen_7" energySource="OTHER" minP="-4999.0" maxP="4999.0" voltageRegulatorOn="true" targetP="236.40918015912345" targetV="380.0" targetQ="0.0" bus="bus_7" connectableBus="bus_7" p="-236.40918015912345" q="-4.142241500642285">
                <iidm:minMaxReactiveLimits minQ="-25.369707275908425" maxQ="155.44276891253133"/>
            </iidm:generator>
        </iidm:voltageLevel>
        <iidm:voltageLevel id="sub_8" nominalV="380.0" lowVoltageLimit="361.0" highVoltageLimit="399.0" topologyKind="BUS_BREAKER">
            <iidm:busBreakerTopology>
                <iidm:bus id="bus_8" name="Bus_8" v="378.9662821143894" angle="-13.00668999993812"/>
            </iidm:busBreakerTopology>
            <iidm:generator id="gen_8_6" name="Gen_8" energySource="OTHER" minP="-4999.0" maxP="4999.0" voltageRegulatorOn="true" targetP="85.16844974713547" targetV="380.0" targetQ="0.0" bus="bus_8" connectableBus="bus_8" p="-85.16844974713547" q="-36.62424346886483">
                <iidm:minMaxReactiveLimits minQ="-21.688898805559752" maxQ="36.62424346886483"/>
            </iidm:generator>
        </iidm:voltageLevel>
        <iidm:voltageLevel id="sub_9" nominalV="380.0" lowVoltageLimit="361.0" highVoltageLimit="399.0" topologyKind="BUS_BREAKER">
            <iidm:busBreakerTopology>
                <iidm:bus id="bus_9" name="Bus_9" v="373.0173886995269" angle="-9.595788471703752"/>
            </iidm:busBreakerTopology>
            <iidm:load id="load_9_2" name="Load_9" loadType="UNDEFINED" p0="569.0226197330512" q0="0.0" bus="bus_9" connectableBus="bus_9" p="569.0226197330512" q="0.0"/>
        </iidm:voltageLevel>
        <iidm:voltageLevel id="sub_10" nominalV="380.0" lowVoltageLimit="361.0" highVoltageLimit="399.0" topologyKind="BUS_BREAKER">
            <iidm:busBreakerTopology>
                <iidm:bus id="bus_10" name="Bus_10" v="378.80654449852653" angle="-13.40173142489513"/>
            </iidm:busBreakerTopology>
            <iidm:generator id="gen_10_7" name="Gen_10" energySource="OTHER" minP="-4999.0" maxP="4999.0" voltageRegulatorOn="true" targetP="23.146901717326173" targetV="380.0" targetQ="0.0" bus="bus_10" connectableBus="bus_10" p="-23.146901717326173" q="-12.057207399103378">
                <iidm:minMaxReactiveLimits minQ="-2.9402411323290516" maxQ="12.057207399103378"/>
            </iidm:generator>
        </iidm:voltageLevel>
        <iidm:voltageLevel id="sub_11" nominalV="380.0" lowVoltageLimit="361.0" highVoltageLimit="399.0" topologyKind="BUS_BREAKER">
            <iidm:busBreakerTopology>
                <iidm:bus id="bus_11" name="Bus_11" v="380.0" angle="-9.966010385844807"/>
            </iidm:busBreakerTopology>
            <iidm:generator id="gen_11_8" name="Gen_11" energySource="OTHER" minP="-4999.0" maxP="4999.0" voltageRegulatorOn="true" targetP="8.174408002443117" targetV="380.0" targetQ="0.0" bus="bus_11" connectableBus="bus_11" p="-8.174408002443117" q="-0.746084618687437">
                <iidm:minMaxReactiveLimits minQ="-1.6852168135310894" maxQ="4.639167432031465"/>
            </iidm:generator>
        </iidm:voltageLevel>
        <iidm:voltageLevel id="sub_12" nominalV="380.0" lowVoltageLimit="361.0" highVoltageLimit="399.0" topologyKind="BUS_BREAKER">
            <iidm:busBreakerTopology>
                <iidm:bus id="bus_12" name="Bus_12" v="380.0" angle="-13.012268777095404"/>
            </iidm:busBreakerTopology>
            <iidm:generator id="gen_12_9" name="Gen_12" energySource="OTHER" minP="-4999.0" maxP="4999.0" voltageRegulatorOn="true" targetP="0.0" targetV="380.0" targetQ="0.0" bus="bus_12" connectableBus="bus_12" p="-0.0" q="-0.5444094953256595">
                <iidm:minMaxReactiveLimits minQ="-31.65240516365734" maxQ="102.88754040263576"/>
            </iidm:generator>
        </iidm:voltageLevel>
        <iidm:voltageLevel id="sub_13" nominalV="380.0" lowVoltageLimit="361.0" highVoltageLimit="399.0" topologyKind="BUS_BREAKER">
            <iidm:busBreakerTopology>
                <iidm:bus id="bus_13" name="Bus_13" v="349.2681592468321" angle="-28.967759727675848"/>
            </iidm:busBreakerTopology>
            <iidm:load id="load_13_3" name="Load_13" loadType="UNDEFINED" p0="300.059088195488" q0="0.0" bus="bus_13" connectableBus="bus_13" p="300.059088195488" q="0.0"/>
        </iidm:voltageLevel>
        <iidm:voltageLevel id="sub_14" nominalV="110.0" lowVoltageLimit="104.5" highVoltageLimit="115.5" topologyKind="BUS_BREAKER">
            <iidm:busBreakerTopology>
                <iidm:bus id="bus_14" name="Bus_14" v="108.89216895132246" angle="-14.955885960941144"/>
            </iidm:busBreakerTopology>
            <iidm:load id="load_14_4" name="Load_14" loadType="UNDEFINED" p0="371.3530141386046" q0="0.0" bus="bus_14" connectableBus="bus_14" p="371.3530141386046" q="0.0"/>
        </iidm:voltageLevel>
        <iidm:voltageLevel id="sub_15" nominalV="110.0" lowVoltageLimit="104.5" highVoltageLimit="115.5" topologyKind="BUS_BREAKER">
            <iidm:busBreakerTopology>
                <iidm:bus id="bus_15" name="Bus_15" v="110.0" angle="0.0"/>
            </iidm:busBreakerTopology>
            <iidm:generator id="gen_15_0" name="Ext_Grid_15" energySource="OTHER" minP="-4999.0" maxP="4999.0" voltageRegulatorOn="true" targetP="1.0E-4" targetV="110.0" targetQ="0.0" bus="bus_15" connectableBus="bus_15" p="-1805.2886310435192" q="-175.817243882625">
                <iidm:minMaxReactiveLimits minQ="-1.7976931348623157E308" maxQ="1.7976931348623157E308"/>
            </iidm:generator>
        </iidm:voltageLevel>
        <iidm:voltageLevel id="sub_16" nominalV="20.0" lowVoltageLimit="19.0" highVoltageLimit="21.0" topologyKind="BUS_BREAKER">
            <iidm:busBreakerTopology>
                <iidm:bus id="bus_16" name="Bus_16" v="19.967567785974115" angle="-10.220219026494002"/>
            </iidm:busBreakerTopology>
            <iidm:load id="load_16_5" name="Load_16" loadType="UNDEFINED" p0="298.42085643176904" q0="0.0" bus="bus_16" connectableBus="bus_16" p="298.42085643176904" q="0.0"/>
        </iidm:voltageLevel>
        <iidm:voltageLevel id="sub_17" nominalV="20.0" lowVoltageLimit="19.0" highVoltageLimit="21.0" topologyKind="BUS_BREAKER">
            <iidm:busBreakerTopology>
                <iidm:bus id="bus_17" name="Bus_17" v="19.977053903663137" angle="2.5166826075289617"/>
            </iidm:busBreakerTopology>
            <iidm:load id="load_17_6" name="Load_17" loadType="UNDEFINED" p0="6.559444772458412" q0="0.0" bus="bus_17" connectableBus="bus_17" p="6.559444772458412" q="0.0"/>
        </iidm:voltageLevel>
        <iidm:voltageLevel id="sub_18" nominalV="20.0" lowVoltageLimit="19.0" highVoltageLimit="21.0" topologyKind="BUS_BREAKER">
            <iidm:busBreakerTopology>
                <iidm:bus id="bus_18" name="Bus_18" v="20.0" angle="4.397998728381065"/>
            </iidm:busBreakerTopology>
        </iidm:voltageLevel>
        <iidm:voltageLevel id="sub_19" nominalV="20.0" lowVoltageLimit="19.0" highVoltageLimit="21.0" topologyKind="BUS_BREAKER">
            <iidm:busBreakerTopology>
                <iidm:bus id="bus_19" name="Bus_19" v="19.66392529172148" angle="-6.067006380154747"/>
            </iidm:busBreakerTopology>
            <iidm:generator id="gen_19_10" name="Gen_19" energySource="OTHER" minP="-4999.0" maxP="4999.0" voltageRegulatorOn="true" targetP="120.76266179900979" targetV="20.0" targetQ="0.0" bus="bus_19" connectableBus="bus_19" p="-120.76266179900979" q="-54.223909716079255">
                <iidm:minMaxReactiveLimits minQ="-30.38171003879647" maxQ="54.223909716079255"/>
            </iidm:generator>
        </iidm:voltageLevel>
        <iidm:voltageLevel id="sub_20" nominalV="20.0" lowVoltageLimit="19.0" highVoltageLimit="21.0" topologyKind="BUS_BREAKER">
            <iidm:busBreakerTopology>
                <iidm:bus id="bus_20" name="Bus_20" v="19.723488842111657" angle="-29.3838706317917"/>
            </iidm:busBreakerTopology>
            <iidm:generator id="gen_20_11" name="Gen_20" energySource="OTHER" minP="-4999.0" maxP="4999.0" voltageRegulatorOn="true" targetP="123.71956695587745" targetV="20.0" targetQ="0.0" bus="bus_20" connectableBus="bus_20" p="-123.71956695587744" q="-61.51969766763913">
                <iidm:minMaxReactiveLimits minQ="-30.278131492813724" maxQ="61.51969766763913"/>
            </iidm:generator>
        </iidm:voltageLevel>
        <iidm:voltageLevel id="sub_21" nominalV="20.0" lowVoltageLimit="19.0" highVoltageLimit="21.0" topologyKind="BUS_BREAKER">
            <iidm:busBreakerTopology>
                <iidm:bus id="bus_21" name="Bus_21" v="20.0" angle="-3.988574099415589"/>
            </iidm:busBreakerTopology>
            <iidm:generator id="gen_21_12" name="Gen_21" energySource="OTHER" minP="-4999.0" maxP="4999.0" voltageRegulatorOn="true" targetP="63.39481008471171" targetV="20.0" targetQ="0.0" bus="bus_21" connectableBus="bus_21" p="-63.39481008471171" q="-1.8152978889952598">
                <iidm:minMaxReactiveLimits minQ="-18.569143017686283" maxQ="22.136314321768356"/>
            </iidm:generator>
        </iidm:voltageLevel>
        <iidm:voltageLevel id="sub_22" nominalV="20.0" lowVoltageLimit="19.0" highVoltageLimit="21.0" topologyKind="BUS_BREAKER">
            <iidm:busBreakerTopology>
                <iidm:bus id="bus_22" name="Bus_22" v="20.0" angle="-3.7717155332695964"/>
            </iidm:busBreakerTopology>
            <iidm:generator id="gen_22_13" name="Gen_22" energySource="OTHER" minP="-4999.0" maxP="4999.0" voltageRegulatorOn="true" targetP="70.48091992295329" targetV="20.0" targetQ="0.0" bus="bus_22" connectableBus="bus_22" p="-70.48091992295329" q="-15.287409219122994">
                <iidm:minMaxReactiveLimits minQ="-5.93528167793829" maxQ="46.56143419090697"/>
            </iidm:generator>
        </iidm:voltageLevel>
        <iidm:voltageLevel id="sub_23" nominalV="20.0" lowVoltageLimit="19.0" highVoltageLimit="21.0" topologyKind="BUS_BREAKER">
            <iidm:busBreakerTopology>
                <iidm:bus id="bus_23" name="Bus_23" v="19.653534322519562" angle="-9.852097443547722"/>
            </iidm:busBreakerTopology>
            <iidm:load id="load_23_7" name="Load_23" loadType="UNDEFINED" p0="416.5062505732559" q0="0.0" bus="bus_23" connectableBus="bus_23" p="416.5062505732559" q="0.0"/>
        </iidm:voltageLevel>
        <iidm:voltageLevel id="sub_24" nominalV="20.0" lowVoltageLimit="19.0" highVoltageLimit="21.0" topologyKind="BUS_BREAKER">
            <iidm:busBreakerTopology>
                <iidm:bus id="bus_24" name="Bus_24" v="19.674698409294678" angle="-24.843390902114525"/>
            </iidm:busBreakerTopology>
            <iidm:load id="load_24_8" name="Load_24" loadType="UNDEFINED" p0="74.8281611710406" q0="0.0" bus="bus_24" connectableBus="bus_24" p="74.8281611710406" q="0.0"/>
        </iidm:voltageLevel>
        <iidm:voltageLevel id="sub_25" nominalV="20.0" lowVoltageLimit="19.0" highVoltageLimit="21.0" topologyKind="BUS_BREAKER">
            <iidm:busBreakerTopology>
                <iidm:bus id="bus_25" name="Bus_25" v="20.0" angle="2.3048183748447104"/>
            </iidm:busBreakerTopology>
            <iidm:generator id="gen_25_14" name="Gen_25" energySource="OTHER" minP="-4999.0" maxP="4999.0" voltageRegulatorOn="true" targetP="78.4946789743615" targetV="20.0" targetQ="0.0" bus="bus_25" connectableBus="bus_25" p="-78.4946789743615" q="-5.738447264828528">
                <iidm:minMaxReactiveLimits minQ="-10.168388659390343" maxQ="52.12562204906812"/>
            </iidm:generator>
        </iidm:voltageLevel>
        <iidm:voltageLevel id="sub_26" nominalV="20.0" lowVoltageLimit="19.0" highVoltageLimit="21.0" topologyKind="BUS_BREAKER">
            <iidm:busBreakerTopology>
                <iidm:bus id="bus_26" name="Bus_26" v="19.494395959386708" angle="-31.7323169132492"/>
            </iidm:busBreakerTopology>
            <iidm:load id="load_26_9" name="Load_26" loadType="UNDEFINED" p0="684.0035788259682" q0="0.0" bus="bus_26" connectableBus="bus_26" p="684.0035788259682" q="0.0"/>
        </iidm:voltageLevel>
        <iidm:voltageLevel id="sub_27" nominalV="20.0" lowVoltageLimit="19.0" highVoltageLimit="21.0" topologyKind="BUS_BREAKER">
            <iidm:busBreakerTopology>
                <iidm:bus id="bus_27" name="Bus_27" v="19.82918731403205" angle="-5.706558227254262"/>
            </iidm:busBreakerTopology>
            <iidm:load id="load_27_10" name="Load_27" loadType="UNDEFINED" p0="26.865451801869177" q0="0.0" bus="bus_27" connectableBus="bus_27" p="26.865451801869177" q="0.0"/>
        </iidm:voltageLevel>
        <iidm:voltageLevel id="sub_28" nominalV="20.0" lowVoltageLimit="19.0" highVoltageLimit="21.0" topologyKind="BUS_BREAKER">
            <iidm:busBreakerTopology>
                <iidm:bus id="bus_28" name="Bus_28" v="19.945980590670676" angle="-8.98257438186799"/>
            </iidm:busBreakerTopology>
            <iidm:generator id="gen_28_15" name="Gen_28" energySource="OTHER" minP="-4999.0" maxP="4999.0" voltageRegulatorOn="true" targetP="236.5024773001901" targetV="20.0" targetQ="0.0" bus="bus_28" connectableBus="bus_28" p="-236.50247730019007" q="-88.10635016825326">
                <iidm:minMaxReactiveLimits minQ="-56.20205852941797" maxQ="88.10635016825326"/>
            </iidm:generator>
        </iidm:voltageLevel>
        <iidm:voltageLevel id="sub_29" nominalV="20.0" lowVoltageLimit="19.0" highVoltageLimit="21.0" topologyKind="BUS_BREAKER">
            <iidm:busBreakerTopology>
                <iidm:bus id="bus_29" name="Bus_29" v="19.90663857773431" angle="-10.02979688109958"/>
            </iidm:busBreakerTopology>
            <iidm:load id="load_29_11" name="Load_29" loadType="UNDEFINED" p0="146.04368787068367" q0="0.0" bus="bus_29" connectableBus="bus_29" p="146.04368787068367" q="0.0"/>
        </iidm:voltageLevel>
        <iidm:voltageLevel id="sub_30" nominalV="20.0" lowVoltageLimit="19.0" highVoltageLimit="21.0" topologyKind="BUS_BREAKER">
            <iidm:busBreakerTopology>
                <iidm:bus id="bus_30" name="Bus_30" v="20.0" angle="-1.2709101389654616"/>
            </iidm:busBreakerTopology>
            <iidm:generator id="gen_30_16" name="Gen_30" energySource="OTHER" minP="-4999.0" maxP="4999.0" voltageRegulatorOn="true" targetP="179.8052278558443" targetV="20.0" targetQ="0.0" bus="bus_30" connectableBus="bus_30" p="-179.8052278558443" q="-2.128899594124789">
                <iidm:minMaxReactiveLimits minQ="-29.33586672629588" maxQ="101.56902936465379"/>
            </iidm:generator>
        </iidm:voltageLevel>
        <iidm:voltageLevel id="sub_31" nominalV="20.0" lowVoltageLimit="19.0" highVoltageLimit="21.0" topologyKind="BUS_BREAKER">
            <iidm:busBreakerTopology>
                <iidm:bus id="bus_31" name="Bus_31" v="19.681204506630582" angle="-23.341895309505247"/>
            </iidm:busBreakerTopology>
            <iidm:load id="load_31_12" name="Load_31" loadType="UNDEFINED" p0="222.9750475132967" q0="0.0" bus="bus_31" connectableBus="bus_31" p="222.9750475132967" q="0.0"/>
        </iidm:voltageLevel>
        <iidm:voltageLevel id="sub_32" nominalV="20.0" lowVoltageLimit="19.0" highVoltageLimit="21.0" topologyKind="BUS_BREAKER">
            <iidm:busBreakerTopology>
                <iidm:bus id="bus_32" name="Bus_32" v="19.733751969632618" angle="-1.9284723558194992"/>
            </iidm:busBreakerTopology>
            <iidm:load id="load_32_13" name="Load_32" loadType="UNDEFINED" p0="27.70197210283403" q0="0.0" bus="bus_32" connectableBus="bus_32" p="27.70197210283403" q="0.0"/>
        </iidm:voltageLevel>
        <iidm:voltageLevel id="sub_33" nominalV="20.0" lowVoltageLimit="19.0" highVoltageLimit="21.0" topologyKind="BUS_BREAKER">
            <iidm:busBreakerTopology>
                <iidm:bus id="bus_33" name="Bus_33" v="19.782108090511883" angle="-9.590075953905023"/>
            </iidm:busBreakerTopology>
            <iidm:load id="load_33_14" name="Load_33" loadType="UNDEFINED" p0="10.557481963328465" q0="0.0" bus="bus_33" connectableBus="bus_33" p="10.557481963328465" q="0.0"/>
        </iidm:voltageLevel>
        <iidm:voltageLevel id="sub_34" nominalV="20.0" lowVoltageLimit="19.0" highVoltageLimit="21.0" topologyKind="BUS_BREAKER">
            <iidm:busBreakerTopology>
                <iidm:bus id="bus_34" name="Bus_34" v="19.820322799607535" angle="-27.165215139851657"/>
            </iidm:busBreakerTopology>
            <iidm:load id="load_34_15" name="Load_34" loadType="UNDEFINED" p0="3.2965397624453243" q0="0.0" bus="bus_34" connectableBus="bus_34" p="3.2965397624453243" q="0.0"/>
        </iidm:voltageLevel>
        <iidm:voltageLevel id="sub_35" nominalV="20.0" lowVoltageLimit="19.0" highVoltageLimit="21.0" topologyKind="BUS_BREAKER">
            <iidm:busBreakerTopology>
                <iidm:bus id="bus_35" name="Bus_35" v="19.429681142336005" angle="-16.847191998166746"/>
            </iidm:busBreakerTopology>
            <iidm:load id="load_35_16" name="Load_35" loadType="UNDEFINED" p0="140.9668789278144" q0="0.0" bus="bus_35" connectableBus="bus_35" p="140.9668789278144" q="0.0"/>
        </iidm:voltageLevel>
        <iidm:voltageLevel id="sub_36" nominalV="20.0" lowVoltageLimit="19.0" highVoltageLimit="21.0" topologyKind="BUS_BREAKER">
            <iidm:busBreakerTopology>
                <iidm:bus id="bus_36" name="Bus_36" v="19.99966243464755" angle="-10.40389277386303"/>
            </iidm:busBreakerTopology>
            <iidm:load id="load_36_17" name="Load_36" loadType="UNDEFINED" p0="16.079803107139625" q0="0.0" bus="bus_36" connectableBus="bus_36" p="16.079803107139625" q="0.0"/>
        </iidm:voltageLevel>
        <iidm:voltageLevel id="sub_37" nominalV="20.0" lowVoltageLimit="19.0" highVoltageLimit="21.0" topologyKind="BUS_BREAKER">
            <iidm:busBreakerTopology>
                <iidm:bus id="bus_37" name="Bus_37" v="20.0" angle="-4.620266028008036"/>
            </iidm:busBreakerTopology>
            <iidm:generator id="gen_37_17" name="Gen_37" energySource="OTHER" minP="-4999.0" maxP="4999.0" voltageRegulatorOn="true" targetP="213.81841978578703" targetV="20.0" targetQ="0.0" bus="bus_37" connectableBus="bus_37" p="-213.81841978578703" q="-36.047123095805844">
                <iidm:minMaxReactiveLimits minQ="-62.94544570399418" maxQ="87.65471034604722"/>
            </iidm:generator>
        </iidm:voltageLevel>
        <iidm:voltageLevel id="sub_38" nominalV="20.0" lowVoltageLimit="19.0" highVoltageLimit="21.0" topologyKind="BUS_BREAKER">
            <iidm:busBreakerTopology>
                <iidm:bus id="bus_38" name="Bus_38" v="19.054317619884063" angle="-21.210494027842742"/>
            </iidm:busBreakerTopology>
            <iidm:load id="load_38_18" name="Load_38" loadType="UNDEFINED" p0="22.519956661013328" q0="0.0" bus="bus_38" connectableBus="bus_38" p="22.519956661013328" q="0.0"/>
        </iidm:voltageLevel>
        <iidm:voltageLevel id="sub_39" nominalV="20.0" lowVoltageLimit="19.0" highVoltageLimit="21.0" topologyKind="BUS_BREAKER">
            <iidm:busBreakerTopology>
                <iidm:bus id="bus_39" name="Bus_39" v="19.631686029475446" angle="-11.250680185339677"/>
            </iidm:busBreakerTopology>
            <iidm:load id="load_39_19" name="Load_39" loadType="UNDEFINED" p0="13.471416344521437" q0="0.0" bus="bus_39" connectableBus="bus_39" p="13.471416344521437" q="0.0"/>
        </iidm:voltageLevel>
        <iidm:voltageLevel id="sub_40" nominalV="20.0" lowVoltageLimit="19.0" highVoltageLimit="21.0" topologyKind="BUS_BREAKER">
            <iidm:busBreakerTopology>
                <iidm:bus id="bus_40" name="Bus_40" v="19.715727488632233" angle="-15.13166730120475"/>
            </iidm:busBreakerTopology>
            <iidm:load id="load_40_20" name="Load_40" loadType="UNDEFINED" p0="102.01638639297107" q0="0.0" bus="bus_40" connectableBus="bus_40" p="102.01638639297107" q="0.0"/>
        </iidm:voltageLevel>
        <iidm:voltageLevel id="sub_41" nominalV="20.0" lowVoltageLimit="19.0" highVoltageLimit="21.0" topologyKind="BUS_BREAKER">
            <iidm:busBreakerTopology>
                <iidm:bus id="bus_41" name="Bus_41" v="19.96830744014271" angle="-15.232865295636696"/>
            </iidm:busBreakerTopology>
            <iidm:load id="load_41_21" name="Load_41" loadType="UNDEFINED" p0="347.13050873125263" q0="0.0" bus="bus_41" connectableBus="bus_41" p="347.13050873125263" q="0.0"/>
        </iidm:voltageLevel>
        <iidm:voltageLevel id="sub_42" nominalV="20.0" lowVoltageLimit="19.0" highVoltageLimit="21.0" topologyKind="BUS_BREAKER">
            <iidm:busBreakerTopology>
                <iidm:bus id="bus_42" name="Bus_42" v="20.07041726868815" angle="-11.111385901142482"/>
            </iidm:busBreakerTopology>
            <iidm:generator id="gen_42_18" name="Gen_42" energySource="OTHER" minP="-4999.0" maxP="4999.0" voltageRegulatorOn="true" targetP="47.77885709195286" targetV="20.0" targetQ="0.0" bus="bus_42" connectableBus="bus_42" p="-47.77885709195286" q="7.618613534128799">
                <iidm:minMaxReactiveLimits minQ="-7.618613534128799" maxQ="31.799361147638937"/>
            </iidm:generator>
        </iidm:voltageLevel>
        <iidm:voltageLevel id="sub_43" nominalV="20.0" lowVoltageLimit="19.0" highVoltageLimit="21.0" topologyKind="BUS_BREAKER">
            <iidm:busBreakerTopology>
                <iidm:bus id="bus_43" name="Bus_43" v="19.61301919583654" angle="-23.144608800586454"/>
            </iidm:busBreakerTopology>
            <iidm:generator id="gen_43_19" name="Gen_43" energySource="OTHER" minP="-4999.0" maxP="4999.0" voltageRegulatorOn="true" targetP="9.587631253858378" targetV="20.0" targetQ="0.0" bus="bus_43" connectableBus="bus_43" p="-9.587631253858378" q="-5.6818853526387105">
                <iidm:minMaxReactiveLimits minQ="-2.6974327275970618" maxQ="5.6818853526387105"/>
            </iidm:generator>
        </iidm:voltageLevel>
        <iidm:voltageLevel id="sub_44" nominalV="20.0" lowVoltageLimit="19.0" highVoltageLimit="21.0" topologyKind="BUS_BREAKER">
            <iidm:busBreakerTopology>
                <iidm:bus id="bus_44" name="Bus_44" v="19.89871811834058" angle="-7.74269498827769"/>
            </iidm:busBreakerTopology>
            <iidm:load id="load_44_22" name="Load_44" loadType="UNDEFINED" p0="45.382663761088885" q0="0.0" bus="bus_44" connectableBus="bus_44" p="45.382663761088885" q="0.0"/>
        </iidm:voltageLevel>
        <iidm:voltageLevel id="sub_45" nominalV="20.0" lowVoltageLimit="19.0" highVoltageLimit="21.0" topologyKind="BUS_BREAKER">
            <iidm:busBreakerTopology>
                <iidm:bus id="bus_45" name="Bus_45" v="19.496858151332834" angle="-11.930775328041946"/>
            </iidm:busBreakerTopology>
            <iidm:load id="load_45_23" name="Load_45" loadType="UNDEFINED" p0="81.28591781925942" q0="0.0" bus="bus_45" connectableBus="bus_45" p="81.28591781925942" q="0.0"/>
        </iidm:voltageLevel>
        <iidm:voltageLevel id="sub_46" nominalV="20.0" lowVoltageLimit="19.0" highVoltageLimit="21.0" topologyKind="BUS_BREAKER">
            <iidm:busBreakerTopology>
                <iidm:bus id="bus_46" name="Bus_46" v="20.0" angle="2.509927809982677"/>
            </iidm:busBreakerTopology>
            <iidm:generator id="gen_46_20" name="Gen_46" energySource="OTHER" minP="-4999.0" maxP="4999.0" voltageRegulatorOn="true" targetP="691.9002520521633" targetV="20.0" targetQ="0.0" bus="bus_46" connectableBus="bus_46" p="-691.9002520521633" q="-56.436593216628594">
                <iidm:minMaxReactiveLimits minQ="-12.065019438787646" maxQ="282.72490257684103"/>
            </iidm:generator>
        </iidm:voltageLevel>
        <iidm:voltageLevel id="sub_47" nominalV="20.0" lowVoltageLimit="19.0" highVoltageLimit="21.0" topologyKind="BUS_BREAKER">
            <iidm:busBreakerTopology>
                <iidm:bus id="bus_47" name="Bus_47" v="19.764563210499897" angle="-8.337487166766339"/>
            </iidm:busBreakerTopology>
            <iidm:load id="load_47_24" name="Load_47" loadType="UNDEFINED" p0="179.72081232718315" q0="0.0" bus="bus_47" connectableBus="bus_47" p="179.72081232718315" q="0.0"/>
        </iidm:voltageLevel>
        <iidm:voltageLevel id="sub_48" nominalV="20.0" lowVoltageLimit="19.0" highVoltageLimit="21.0" topologyKind="BUS_BREAKER">
            <iidm:busBreakerTopology>
                <iidm:bus id="bus_48" name="Bus_48" v="20.011627665305944" angle="-10.381538627467249"/>
            </iidm:busBreakerTopology>
            <iidm:generator id="gen_48_21" name="Gen_48" energySource="OTHER" minP="-4999.0" maxP="4999.0" voltageRegulatorOn="true" targetP="0.6040733218282749" targetV="20.0" targetQ="0.0" bus="bus_48" connectableBus="bus_48" p="-0.6040733218282749" q="-0.0">
                <iidm:minMaxReactiveLimits minQ="-0.04423255597613999" maxQ="0.3984628281620229"/>
            </iidm:generator>
        </iidm:voltageLevel>
        <iidm:voltageLevel id="sub_49" nominalV="20.0" lowVoltageLimit="19.0" highVoltageLimit="21.0" topologyKind="BUS_BREAKER">
            <iidm:busBreakerTopology>
                <iidm:bus id="bus_49" name="Bus_49" v="19.59362108773555" angle="-28.99758114320948"/>
            </iidm:busBreakerTopology>
            <iidm:load id="load_49_25" name="Load_49" loadType="UNDEFINED" p0="223.02627899406616" q0="0.0" bus="bus_49" connectableBus="bus_49" p="223.02627899406616" q="0.0"/>
        </iidm:voltageLevel>
        <iidm:voltageLevel id="sub_50" nominalV="20.0" lowVoltageLimit="19.0" highVoltageLimit="21.0" topologyKind="BUS_BREAKER">
            <iidm:busBreakerTopology>
                <iidm:bus id="bus_50" name="Bus_50" v="19.881016937358805" angle="-10.71850079227132"/>
            </iidm:busBreakerTopology>
            <iidm:generator id="gen_50_22" name="Gen_50" energySource="OTHER" minP="-4999.0" maxP="4999.0" voltageRegulatorOn="true" targetP="55.6884729696694" targetV="20.0" targetQ="0.0" bus="bus_50" connectableBus="bus_50" p="-55.6884729696694" q="-25.564308502556198">
                <iidm:minMaxReactiveLimits minQ="-9.717118218193836" maxQ="25.564308502556198"/>
            </iidm:generator>
        </iidm:voltageLevel>
        <iidm:voltageLevel id="sub_51" nominalV="20.0" lowVoltageLimit="19.0" highVoltageLimit="21.0" topologyKind="BUS_BREAKER">
            <iidm:busBreakerTopology>
                <iidm:bus id="bus_51" name="Bus_51" v="20.0" angle="-8.01105344326282"/>
            </iidm:busBreakerTopology>
            <iidm:generator id="gen_51_23" name="Gen_51" energySource="OTHER" minP="-4999.0" maxP="4999.0" voltageRegulatorOn="true" targetP="185.96857806634833" targetV="20.0" targetQ="0.0" bus="bus_51" connectableBus="bus_51" p="-185.96857806634833" q="10.547004072880384">
                <iidm:minMaxReactiveLimits minQ="-36.38440545620314" maxQ="74.89499354396482"/>
            </iidm:generator>
        </iidm:voltageLevel>
        <iidm:voltageLevel id="sub_52" nominalV="20.0" lowVoltageLimit="19.0" highVoltageLimit="21.0" topologyKind="BUS_BREAKER">
            <iidm:busBreakerTopology>
                <iidm:bus id="bus_52" name="Bus_52" v="20.0" angle="-22.912237784106726"/>
            </iidm:busBreakerTopology>
            <iidm:generator id="gen_52_24" name="Gen_52" energySource="OTHER" minP="-4999.0" maxP="4999.0" voltageRegulatorOn="true" targetP="127.08661208715944" targetV="20.0" targetQ="0.0" bus="bus_52" connectableBus="bus_52" p="-127.08661208715944" q="-24.05684656468914">
                <iidm:minMaxReactiveLimits minQ="-1.0845650178865187" maxQ="56.13099263442854"/>
            </iidm:generator>
        </iidm:voltageLevel>
        <iidm:voltageLevel id="sub_53" nominalV="20.0" lowVoltageLimit="19.0" highVoltageLimit="21.0" topologyKind="BUS_BREAKER">
            <iidm:busBreakerTopology>
                <iidm:bus id="bus_53" name="Bus_53" v="19.991070991101438" angle="-11.101011178882105"/>
            </iidm:busBreakerTopology>
            <iidm:load id="load_53_26" name="Load_53" loadType="UNDEFINED" p0="10.422046946080032" q0="0.0" bus="bus_53" connectableBus="bus_53" p="10.422046946080032" q="0.0"/>
        </iidm:voltageLevel>
        <iidm:voltageLevel id="sub_54" nominalV="20.0" lowVoltageLimit="19.0" highVoltageLimit="21.0" topologyKind="BUS_BREAKER">
            <iidm:busBreakerTopology>
                <iidm:bus id="bus_54" name="Bus_54" v="20.0" angle="-22.76568379892523"/>
            </iidm:busBreakerTopology>
            <iidm:generator id="gen_54_25" name="Gen_54" energySource="OTHER" minP="-4999.0" maxP="4999.0" voltageRegulatorOn="true" targetP="158.80509855491044" targetV="20.0" targetQ="0.0" bus="bus_54" connectableBus="bus_54" p="-158.80509855491044" q="-21.751445460150975">
                <iidm:minMaxReactiveLimits minQ="-26.957391240253717" maxQ="67.89310865105413"/>
            </iidm:generator>
        </iidm:voltageLevel>
        <iidm:voltageLevel id="sub_55" nominalV="20.0" lowVoltageLimit="19.0" highVoltageLimit="21.0" topologyKind="BUS_BREAKER">
            <iidm:busBreakerTopology>
                <iidm:bus id="bus_55" name="Bus_55" v="19.88556071751112" angle="-13.342811222485327"/>
            </iidm:busBreakerTopology>
            <iidm:generator id="gen_55_26" name="Gen_55" energySource="OTHER" minP="-4999.0" maxP="4999.0" voltageRegulatorOn="true" targetP="21.5512623649844" targetV="20.0" targetQ="0.0" bus="bus_55" connectableBus="bus_55" p="-21.5512623649844" q="-10.089824333634713">
                <iidm:minMaxReactiveLimits minQ="-5.58017500580758" maxQ="10.089824333634713"/>
            </iidm:generator>
        </iidm:voltageLevel>
        <iidm:voltageLevel id="sub_56" nominalV="20.0" lowVoltageLimit="19.0" highVoltageLimit="21.0" topologyKind="BUS_BREAKER">
            <iidm:busBreakerTopology>
                <iidm:bus id="bus_56" name="Bus_56" v="19.759462325110803" angle="-17.417944663179554"/>
            </iidm:busBreakerTopology>
            <iidm:generator id="gen_56_27" name="Gen_56" energySource="OTHER" minP="-4999.0" maxP="4999.0" voltageRegulatorOn="true" targetP="28.33063218180872" targetV="20.0" targetQ="0.0" bus="bus_56" connectableBus="bus_56" p="-28.330632181808717" q="-9.351667811697894">
                <iidm:minMaxReactiveLimits minQ="-8.5934338852785" maxQ="9.351667811697894"/>
            </iidm:generator>
        </iidm:voltageLevel>
        <iidm:voltageLevel id="sub_57" nominalV="20.0" lowVoltageLimit="19.0" highVoltageLimit="21.0" topologyKind="BUS_BREAKER">
            <iidm:busBreakerTopology>
                <iidm:bus id="bus_57" name="Bus_57" v="19.930325150338003" angle="-13.437260458276779"/>
            </iidm:busBreakerTopology>
            <iidm:generator id="gen_57_28" name="Gen_57" energySource="OTHER" minP="-4999.0" maxP="4999.0" voltageRegulatorOn="true" targetP="16.857248490336563" targetV="20.0" targetQ="0.0" bus="bus_57" connectableBus="bus_57" p="-16.857248490336563" q="-10.752163163061299">
                <iidm:minMaxReactiveLimits minQ="-0.7584345599956589" maxQ="10.752163163061299"/>
            </iidm:generator>
        </iidm:voltageLevel>
        <iidm:voltageLevel id="sub_58" nominalV="20.0" lowVoltageLimit="19.0" highVoltageLimit="21.0" topologyKind="BUS_BREAKER">
            <iidm:busBreakerTopology>
                <iidm:bus id="bus_58" name="Bus_58" v="20.0" angle="4.397998728381065"/>
            </iidm:busBreakerTopology>
            <iidm:generator id="gen_58_29" name="Gen_58" energySource="OTHER" minP="-4999.0" maxP="4999.0" voltageRegulatorOn="true" targetP="77.76514146278207" targetV="20.0" targetQ="0.0" bus="bus_58" connectableBus="bus_58" p="-77.76514146278207" q="7.1627203036005005">
                <iidm:minMaxReactiveLimits minQ="-22.068412056647084" maxQ="43.22907849892378"/>
            </iidm:generator>
        </iidm:voltageLevel>
        <iidm:voltageLevel id="sub_59" nominalV="20.0" lowVoltageLimit="19.0" highVoltageLimit="21.0" topologyKind="BUS_BREAKER">
            <iidm:busBreakerTopology>
                <iidm:bus id="bus_59" name="Bus_59" v="20.0" angle="-0.06739862887910081"/>
            </iidm:busBreakerTopology>
            <iidm:generator id="gen_59_30" name="Gen_59" energySource="OTHER" minP="-4999.0" maxP="4999.0" voltageRegulatorOn="true" targetP="40.698882291896005" targetV="20.0" targetQ="0.0" bus="bus_59" connectableBus="bus_59" p="-40.698882291896005" q="-22.817599712317893">
                <iidm:minMaxReactiveLimits minQ="-6.37486812166751" maxQ="28.27437551344675"/>
            </iidm:generator>
        </iidm:voltageLevel>
        <iidm:voltageLevel id="sub_60" nominalV="20.0" lowVoltageLimit="19.0" highVoltageLimit="21.0" topologyKind="BUS_BREAKER">
            <iidm:busBreakerTopology>
                <iidm:bus id="bus_60" name="Bus_60" v="20.0" angle="-7.473320195835966"/>
            </iidm:busBreakerTopology>
            <iidm:generator id="gen_60_31" name="Gen_60" energySource="OTHER" minP="-4999.0" maxP="4999.0" voltageRegulatorOn="true" targetP="0.0" targetV="20.0" targetQ="0.0" bus="bus_60" connectableBus="bus_60" p="-0.0" q="-196.98026741750664">
                <iidm:minMaxReactiveLimits minQ="-102.18983963489134" maxQ="216.32475580692656"/>
            </iidm:generator>
        </iidm:voltageLevel>
        <iidm:voltageLevel id="sub_61" nominalV="20.0" lowVoltageLimit="19.0" highVoltageLimit="21.0" topologyKind="BUS_BREAKER">
            <iidm:busBreakerTopology>
                <iidm:bus id="bus_61" name="Bus_61" v="20.042846733915106" angle="-5.1907666592155115"/>
            </iidm:busBreakerTopology>
            <iidm:generator id="gen_61_32" name="Gen_61" energySource="OTHER" minP="-4999.0" maxP="4999.0" voltageRegulatorOn="true" targetP="255.93884643535682" targetV="20.0" targetQ="0.0" bus="bus_61" connectableBus="bus_61" p="-255.93884643535682" q="31.059768544210044">
                <iidm:minMaxReactiveLimits minQ="-31.059768544210044" maxQ="113.37119181505703"/>
            </iidm:generator>
        </iidm:voltageLevel>
        <iidm:voltageLevel id="sub_62" nominalV="20.0" lowVoltageLimit="19.0" highVoltageLimit="21.0" topologyKind="BUS_BREAKER">
            <iidm:busBreakerTopology>
                <iidm:bus id="bus_62" name="Bus_62" v="20.0" angle="-17.551972175955434"/>
            </iidm:busBreakerTopology>
            <iidm:generator id="gen_62_33" name="Gen_62" energySource="OTHER" minP="-4999.0" maxP="4999.0" voltageRegulatorOn="true" targetP="0.0" targetV="20.0" targetQ="0.0" bus="bus_62" connectableBus="bus_62" p="-0.0" q="-22.402636798985753">
                <iidm:minMaxReactiveLimits minQ="-8.693977593470379" maxQ="98.37768893900794"/>
            </iidm:generator>
        </iidm:voltageLevel>
        <iidm:voltageLevel id="sub_63" nominalV="20.0" lowVoltageLimit="19.0" highVoltageLimit="21.0" topologyKind="BUS_BREAKER">
            <iidm:busBreakerTopology>
                <iidm:bus id="bus_63" name="Bus_63" v="19.962577898140047" angle="0.5380549570202543"/>
            </iidm:busBreakerTopology>
            <iidm:generator id="gen_63_34" name="Gen_63" energySource="OTHER" minP="-4999.0" maxP="4999.0" voltageRegulatorOn="true" targetP="4.06907626908028" targetV="20.0" targetQ="0.0" bus="bus_63" connectableBus="bus_63" p="-4.06907626908028" q="-1.2568450568700804">
                <iidm:minMaxReactiveLimits minQ="-0.2952183992616763" maxQ="1.2568450568700804"/>
            </iidm:generator>
        </iidm:voltageLevel>
        <iidm:voltageLevel id="sub_64" nominalV="20.0" lowVoltageLimit="19.0" highVoltageLimit="21.0" topologyKind="BUS_BREAKER">
            <iidm:busBreakerTopology>
                <iidm:bus id="bus_64" name="Bus_64" v="19.685483431422963" angle="-3.457404028203476"/>
            </iidm:busBreakerTopology>
            <iidm:generator id="gen_64_35" name="Gen_64" energySource="OTHER" minP="-4999.0" maxP="4999.0" voltageRegulatorOn="true" targetP="40.45675365731397" targetV="20.0" targetQ="0.0" bus="bus_64" connectableBus="bus_64" p="-40.45675365731397" q="-29.133487288917433">
                <iidm:minMaxReactiveLimits minQ="-9.296596606843785" maxQ="29.133487288917433"/>
            </iidm:generator>
        </iidm:voltageLevel>
        <iidm:voltageLevel id="sub_65" nominalV="20.0" lowVoltageLimit="19.0" highVoltageLimit="21.0" topologyKind="BUS_BREAKER">
            <iidm:busBreakerTopology>
                <iidm:bus id="bus_65" name="Bus_65" v="19.58138075771299" angle="-17.091915861494346"/>
            </iidm:busBreakerTopology>
            <iidm:load id="load_65_27" name="Load_65" loadType="UNDEFINED" p0="131.87901255109563" q0="0.0" bus="bus_65" connectableBus="bus_65" p="131.87901255109563" q="0.0"/>
        </iidm:voltageLevel>
        <iidm:voltageLevel id="sub_66" nominalV="20.0" lowVoltageLimit="19.0" highVoltageLimit="21.0" topologyKind="BUS_BREAKER">
            <iidm:busBreakerTopology>
                <iidm:bus id="bus_66" name="Bus_66" v="19.49722264153293" angle="-22.35215739363103"/>
            </iidm:busBreakerTopology>
            <iidm:generator id="gen_66_36" name="Gen_66" energySource="OTHER" minP="-4999.0" maxP="4999.0" voltageRegulatorOn="true" targetP="4.233773163805787" targetV="20.0" targetQ="0.0" bus="bus_66" connectableBus="bus_66" p="-4.233773163805787" q="-1.362694814483553">
                <iidm:minMaxReactiveLimits minQ="-0.2700649300940312" maxQ="1.362694814483553"/>
            </iidm:generator>
        </iidm:voltageLevel>
        <iidm:voltageLevel id="sub_67" nominalV="20.0" lowVoltageLimit="19.0" highVoltageLimit="21.0" topologyKind="BUS_BREAKER">
            <iidm:busBreakerTopology>
                <iidm:bus id="bus_67" name="Bus_67" v="19.999977997218476" angle="-11.43358338567068"/>
            </iidm:busBreakerTopology>
            <iidm:generator id="gen_67_37" name="Gen_67" energySource="OTHER" minP="-4999.0" maxP="4999.0" voltageRegulatorOn="true" targetP="131.68585133501094" targetV="20.0" targetQ="0.0" bus="bus_67" connectableBus="bus_67" p="-131.68585133501094" q="-55.88899953175607">
                <iidm:minMaxReactiveLimits minQ="-10.912297937289477" maxQ="55.88899953175606"/>
            </iidm:generator>
        </iidm:voltageLevel>
        <iidm:voltageLevel id="sub_68" nominalV="20.0" lowVoltageLimit="19.0" highVoltageLimit="21.0" topologyKind="BUS_BREAKER">
            <iidm:busBreakerTopology>
                <iidm:bus id="bus_68" name="Bus_68" v="18.70581911755512" angle="-27.65859722488243"/>
            </iidm:busBreakerTopology>
            <iidm:load id="load_68_28" name="Load_68" loadType="UNDEFINED" p0="63.143545033617755" q0="0.0" bus="bus_68" connectableBus="bus_68" p="63.143545033617755" q="0.0"/>
        </iidm:voltageLevel>
        <iidm:voltageLevel id="sub_69" nominalV="20.0" lowVoltageLimit="19.0" highVoltageLimit="21.0" topologyKind="BUS_BREAKER">
            <iidm:busBreakerTopology>
                <iidm:bus id="bus_69" name="Bus_69" v="19.740795094649997" angle="-10.977543754270021"/>
            </iidm:busBreakerTopology>
            <iidm:load id="load_69_29" name="Load_69" loadType="UNDEFINED" p0="111.83308137668905" q0="0.0" bus="bus_69" connectableBus="bus_69" p="111.83308137668905" q="0.0"/>
        </iidm:voltageLevel>
        <iidm:voltageLevel id="sub_70" nominalV="20.0" lowVoltageLimit="19.0" highVoltageLimit="21.0" topologyKind="BUS_BREAKER">
            <iidm:busBreakerTopology>
                <iidm:bus id="bus_70" name="Bus_70" v="20.0" angle="-2.4405414261279814"/>
            </iidm:busBreakerTopology>
            <iidm:generator id="gen_70_38" name="Gen_70" energySource="OTHER" minP="-4999.0" maxP="4999.0" voltageRegulatorOn="true" targetP="178.9610929098999" targetV="20.0" targetQ="0.0" bus="bus_70" connectableBus="bus_70" p="-178.9610929098999" q="5.048429131589671">
                <iidm:minMaxReactiveLimits minQ="-19.19851755489846" maxQ="92.23445395410025"/>
            </iidm:generator>
        </iidm:voltageLevel>
        <iidm:voltageLevel id="sub_71" nominalV="20.0" lowVoltageLimit="19.0" highVoltageLimit="21.0" topologyKind="BUS_BREAKER">
            <iidm:busBreakerTopology>
                <iidm:bus id="bus_71" name="Bus_71" v="20.0" angle="-13.261752038347597"/>
            </iidm:busBreakerTopology>
            <iidm:generator id="gen_71_39" name="Gen_71" energySource="OTHER" minP="-4999.0" maxP="4999.0" voltageRegulatorOn="true" targetP="680.0095974719814" targetV="20.0" targetQ="0.0" bus="bus_71" connectableBus="bus_71" p="-680.0095974719814" q="-69.24011666894478">
                <iidm:minMaxReactiveLimits minQ="-134.0984158955094" maxQ="408.70850516554185"/>
            </iidm:generator>
        </iidm:voltageLevel>
        <iidm:voltageLevel id="sub_72" nominalV="20.0" lowVoltageLimit="19.0" highVoltageLimit="21.0" topologyKind="BUS_BREAKER">
            <iidm:busBreakerTopology>
                <iidm:bus id="bus_72" name="Bus_72" v="19.64530774786008" angle="-16.45438120766962"/>
            </iidm:busBreakerTopology>
            <iidm:load id="load_72_30" name="Load_72" loadType="UNDEFINED" p0="165.02516525873412" q0="0.0" bus="bus_72" connectableBus="bus_72" p="165.02516525873412" q="0.0"/>
        </iidm:voltageLevel>
        <iidm:voltageLevel id="sub_73" nominalV="20.0" lowVoltageLimit="19.0" highVoltageLimit="21.0" topologyKind="BUS_BREAKER">
            <iidm:busBreakerTopology>
                <iidm:bus id="bus_73" name="Bus_73" v="18.857625803693058" angle="-30.47533901871766"/>
            </iidm:busBreakerTopology>
            <iidm:load id="load_73_31" name="Load_73" loadType="UNDEFINED" p0="45.79562567009471" q0="0.0" bus="bus_73" connectableBus="bus_73" p="45.79562567009471" q="0.0"/>
        </iidm:voltageLevel>
        <iidm:voltageLevel id="sub_74" nominalV="20.0" lowVoltageLimit="19.0" highVoltageLimit="21.0" topologyKind="BUS_BREAKER">
            <iidm:busBreakerTopology>
                <iidm:bus id="bus_74" name="Bus_74" v="19.953369341481345" angle="-8.712748102036022"/>
            </iidm:busBreakerTopology>
            <iidm:load id="load_74_32" name="Load_74" loadType="UNDEFINED" p0="9.7692516410694" q0="0.0" bus="bus_74" connectableBus="bus_74" p="9.7692516410694" q="0.0"/>
        </iidm:voltageLevel>
        <iidm:voltageLevel id="sub_75" nominalV="20.0" lowVoltageLimit="19.0" highVoltageLimit="21.0" topologyKind="BUS_BREAKER">
            <iidm:busBreakerTopology>
                <iidm:bus id="bus_75" name="Bus_75" v="19.079566598004185" angle="-17.658157454227617"/>
            </iidm:busBreakerTopology>
            <iidm:load id="load_75_33" name="Load_75" loadType="UNDEFINED" p0="24.850406546677263" q0="0.0" bus="bus_75" connectableBus="bus_75" p="24.850406546677263" q="0.0"/>
        </iidm:voltageLevel>
        <iidm:voltageLevel id="sub_76" nominalV="20.0" lowVoltageLimit="19.0" highVoltageLimit="21.0" topologyKind="BUS_BREAKER">
            <iidm:busBreakerTopology>
                <iidm:bus id="bus_76" name="Bus_76" v="19.785361398367883" angle="-7.285122065714522"/>
            </iidm:busBreakerTopology>
            <iidm:generator id="gen_76_40" name="Gen_76" energySource="OTHER" minP="-4999.0" maxP="4999.0" voltageRegulatorOn="true" targetP="210.7661481182087" targetV="20.0" targetQ="0.0" bus="bus_76" connectableBus="bus_76" p="-210.7661481182087" q="-74.89537090855394">
                <iidm:minMaxReactiveLimits minQ="-63.55733122104926" maxQ="74.89537090855394"/>
            </iidm:generator>
        </iidm:voltageLevel>
        <iidm:voltageLevel id="sub_77" nominalV="20.0" lowVoltageLimit="19.0" highVoltageLimit="21.0" topologyKind="BUS_BREAKER">
            <iidm:busBreakerTopology>
                <iidm:bus id="bus_77" name="Bus_77" v="20.04697141339129" angle="-8.493519520288691"/>
            </iidm:busBreakerTopology>
            <iidm:generator id="gen_77_41" name="Gen_77" energySource="OTHER" minP="-4999.0" maxP="4999.0" voltageRegulatorOn="true" targetP="107.28605120197903" targetV="20.0" targetQ="0.0" bus="bus_77" connectableBus="bus_77" p="-107.28605120197902" q="25.18411522395368">
                <iidm:minMaxReactiveLimits minQ="-25.18411522395368" maxQ="42.112463538872355"/>
            </iidm:generator>
        </iidm:voltageLevel>
        <iidm:voltageLevel id="sub_78" nominalV="20.0" lowVoltageLimit="19.0" highVoltageLimit="21.0" topologyKind="BUS_BREAKER">
            <iidm:busBreakerTopology>
                <iidm:bus id="bus_78" name="Bus_78" v="19.837562890026234" angle="-29.525880705253755"/>
            </iidm:busBreakerTopology>
            <iidm:load id="load_78_34" name="Load_78" loadType="UNDEFINED" p0="43.008040855141424" q0="0.0" bus="bus_78" connectableBus="bus_78" p="43.008040855141424" q="0.0"/>
        </iidm:voltageLevel>
        <iidm:voltageLevel id="sub_79" nominalV="20.0" lowVoltageLimit="19.0" highVoltageLimit="21.0" topologyKind="BUS_BREAKER">
            <iidm:busBreakerTopology>
                <iidm:bus id="bus_79" name="Bus_79" v="20.0" angle="-2.5325708171490167"/>
            </iidm:busBreakerTopology>
            <iidm:generator id="gen_79_42" name="Gen_79" energySource="OTHER" minP="-4999.0" maxP="4999.0" voltageRegulatorOn="true" targetP="0.0" targetV="20.0" targetQ="0.0" bus="bus_79" connectableBus="bus_79" p="-0.0" q="6.361245981204844">
                <iidm:minMaxReactiveLimits minQ="-20.101158406105423" maxQ="76.84056360507036"/>
            </iidm:generator>
        </iidm:voltageLevel>
        <iidm:voltageLevel id="sub_80" nominalV="20.0" lowVoltageLimit="19.0" highVoltageLimit="21.0" topologyKind="BUS_BREAKER">
            <iidm:busBreakerTopology>
                <iidm:bus id="bus_80" name="Bus_80" v="19.414098949326704" angle="-15.859718783497376"/>
            </iidm:busBreakerTopology>
            <iidm:load id="load_80_35" name="Load_80" loadType="UNDEFINED" p0="593.414356437466" q0="0.0" bus="bus_80" connectableBus="bus_80" p="593.414356437466" q="0.0"/>
        </iidm:voltageLevel>
        <iidm:voltageLevel id="sub_81" nominalV="20.0" lowVoltageLimit="19.0" highVoltageLimit="21.0" topologyKind="BUS_BREAKER">
            <iidm:busBreakerTopology>
                <iidm:bus id="bus_81" name="Bus_81" v="19.741680587267986" angle="-10.641180562298489"/>
            </iidm:busBreakerTopology>
            <iidm:load id="load_81_36" name="Load_81" loadType="UNDEFINED" p0="180.79254899822632" q0="0.0" bus="bus_81" connectableBus="bus_81" p="180.79254899822632" q="0.0"/>
        </iidm:voltageLevel>
        <iidm:voltageLevel id="sub_82" nominalV="20.0" lowVoltageLimit="19.0" highVoltageLimit="21.0" topologyKind="BUS_BREAKER">
            <iidm:busBreakerTopology>
                <iidm:bus id="bus_82" name="Bus_82" v="20.0" angle="-11.384137040441992"/>
            </iidm:busBreakerTopology>
            <iidm:generator id="gen_82_43" name="Gen_82" energySource="OTHER" minP="-4999.0" maxP="4999.0" voltageRegulatorOn="true" targetP="26.674722113354516" targetV="20.0" targetQ="0.0" bus="bus_82" connectableBus="bus_82" p="-26.674722113354516" q="-2.3543353377910137">
                <iidm:minMaxReactiveLimits minQ="-6.861264295543933" maxQ="14.838749653866445"/>
            </iidm:generator>
        </iidm:voltageLevel>
        <iidm:voltageLevel id="sub_83" nominalV="20.0" lowVoltageLimit="19.0" highVoltageLimit="21.0" topologyKind="BUS_BREAKER">
            <iidm:busBreakerTopology>
                <iidm:bus id="bus_83" name="Bus_83" v="19.67140805890477" angle="-25.95728086934845"/>
            </iidm:busBreakerTopology>
            <iidm:generator id="gen_83_44" name="Gen_83" energySource="OTHER" minP="-4999.0" maxP="4999.0" voltageRegulatorOn="true" targetP="132.13053720781923" targetV="20.0" targetQ="0.0" bus="bus_83" connectableBus="bus_83" p="-132.13053720781923" q="-48.95217940565895">
                <iidm:minMaxReactiveLimits minQ="-21.470295227510732" maxQ="48.95217940565895"/>
            </iidm:generator>
        </iidm:voltageLevel>
        <iidm:voltageLevel id="sub_84" nominalV="20.0" lowVoltageLimit="19.0" highVoltageLimit="21.0" topologyKind="BUS_BREAKER">
            <iidm:busBreakerTopology>
                <iidm:bus id="bus_84" name="Bus_84" v="19.914681705033757" angle="-3.0274245080805215"/>
            </iidm:busBreakerTopology>
            <iidm:load id="load_84_37" name="Load_84" loadType="UNDEFINED" p0="16.136394822075843" q0="0.0" bus="bus_84" connectableBus="bus_84" p="16.136394822075843" q="0.0"/>
        </iidm:voltageLevel>
        <iidm:voltageLevel id="sub_85" nominalV="20.0" lowVoltageLimit="19.0" highVoltageLimit="21.0" topologyKind="BUS_BREAKER">
            <iidm:busBreakerTopology>
                <iidm:bus id="bus_85" name="Bus_85" v="20.0" angle="-11.009099775641424"/>
            </iidm:busBreakerTopology>
            <iidm:generator id="gen_85_45" name="Gen_85" energySource="OTHER" minP="-4999.0" maxP="4999.0" voltageRegulatorOn="true" targetP="86.05809831325699" targetV="20.0" targetQ="0.0" bus="bus_85" connectableBus="bus_85" p="-86.05809831325699" q="-5.842456550930031">
                <iidm:minMaxReactiveLimits minQ="-6.828134332015351" maxQ="27.861272832082545"/>
            </iidm:generator>
        </iidm:voltageLevel>
        <iidm:voltageLevel id="sub_86" nominalV="20.0" lowVoltageLimit="19.0" highVoltageLimit="21.0" topologyKind="BUS_BREAKER">
            <iidm:busBreakerTopology>
                <iidm:bus id="bus_86" name="Bus_86" v="19.677323256419697" angle="-16.490584817359476"/>
            </iidm:busBreakerTopology>
            <iidm:load id="load_86_38" name="Load_86" loadType="UNDEFINED" p0="136.40073992208366" q0="0.0" bus="bus_86" connectableBus="bus_86" p="136.40073992208366" q="0.0"/>
        </iidm:voltageLevel>
        <iidm:voltageLevel id="sub_87" nominalV="20.0" lowVoltageLimit="19.0" highVoltageLimit="21.0" topologyKind="BUS_BREAKER">
            <iidm:busBreakerTopology>
                <iidm:bus id="bus_87" name="Bus_87" v="19.887748461583925" angle="-3.787459183597975"/>
            </iidm:busBreakerTopology>
            <iidm:load id="load_87_39" name="Load_87" loadType="UNDEFINED" p0="89.25433575068837" q0="0.0" bus="bus_87" connectableBus="bus_87" p="89.25433575068837" q="0.0"/>
        </iidm:voltageLevel>
        <iidm:voltageLevel id="sub_88" nominalV="20.0" lowVoltageLimit="19.0" highVoltageLimit="21.0" topologyKind="BUS_BREAKER">
            <iidm:busBreakerTopology>
                <iidm:bus id="bus_88" name="Bus_88" v="19.116041720144064" angle="-23.12389126251588"/>
            </iidm:busBreakerTopology>
            <iidm:generator id="gen_88_46" name="Gen_88" energySource="OTHER" minP="-4999.0" maxP="4999.0" voltageRegulatorOn="true" targetP="0.0" targetV="20.0" targetQ="0.0" bus="bus_88" connectableBus="bus_88" p="-0.0" q="-11.242623041134522">
                <iidm:minMaxReactiveLimits minQ="-0.5981242597942197" maxQ="11.242623041134522"/>
            </iidm:generator>
        </iidm:voltageLevel>
        <iidm:voltageLevel id="sub_89" nominalV="20.0" lowVoltageLimit="19.0" highVoltageLimit="21.0" topologyKind="BUS_BREAKER">
            <iidm:busBreakerTopology>
                <iidm:bus id="bus_89" name="Bus_89" v="20.183457141024462" angle="-17.782889833178363"/>
            </iidm:busBreakerTopology>
            <iidm:generator id="gen_89_47" name="Gen_89" energySource="OTHER" minP="-4999.0" maxP="4999.0" voltageRegulatorOn="true" targetP="17.24994164131681" targetV="20.0" targetQ="0.0" bus="bus_89" connectableBus="bus_89" p="-17.24994164131681" q="1.612493751531556">
                <iidm:minMaxReactiveLimits minQ="-1.6124937515315558" maxQ="8.924711646409056"/>
            </iidm:generator>
        </iidm:voltageLevel>
        <iidm:voltageLevel id="sub_90" nominalV="20.0" lowVoltageLimit="19.0" highVoltageLimit="21.0" topologyKind="BUS_BREAKER">
            <iidm:busBreakerTopology>
                <iidm:bus id="bus_90" name="Bus_90" v="19.742303145455274" angle="-9.544368667521384"/>
            </iidm:busBreakerTopology>
            <iidm:load id="load_90_40" name="Load_90" loadType="UNDEFINED" p0="199.0774904335616" q0="0.0" bus="bus_90" connectableBus="bus_90" p="199.0774904335616" q="0.0"/>
        </iidm:voltageLevel>
        <iidm:voltageLevel id="sub_91" nominalV="20.0" lowVoltageLimit="19.0" highVoltageLimit="21.0" topologyKind="BUS_BREAKER">
            <iidm:busBreakerTopology>
                <iidm:bus id="bus_91" name="Bus_91" v="19.764040136857624" angle="-9.739517165184129"/>
            </iidm:busBreakerTopology>
            <iidm:load id="load_91_41" name="Load_91" loadType="UNDEFINED" p0="166.37954333638737" q0="0.0" bus="bus_91" connectableBus="bus_91" p="166.37954333638737" q="0.0"/>
        </iidm:voltageLevel>
        <iidm:voltageLevel id="sub_92" nominalV="20.0" lowVoltageLimit="19.0" highVoltageLimit="21.0" topologyKind="BUS_BREAKER">
            <iidm:busBreakerTopology>
                <iidm:bus id="bus_92" name="Bus_92" v="19.981153966906252" angle="-8.292520334853089"/>
            </iidm:busBreakerTopology>
            <iidm:generator id="gen_92_48" name="Gen_92" energySource="OTHER" minP="-4999.0" maxP="4999.0" voltageRegulatorOn="true" targetP="16.944297275838668" targetV="20.0" targetQ="0.0" bus="bus_92" connectableBus="bus_92" p="-16.944297275838668" q="-5.215781920639857">
                <iidm:minMaxReactiveLimits minQ="-1.9453572722559007" maxQ="5.215781920639857"/>
            </iidm:generator>
        </iidm:voltageLevel>
        <iidm:voltageLevel id="sub_93" nominalV="20.0" lowVoltageLimit="19.0" highVoltageLimit="21.0" topologyKind="BUS_BREAKER">
            <iidm:busBreakerTopology>
                <iidm:bus id="bus_93" name="Bus_93" v="20.17572939177761" angle="-4.20717083269297"/>
            </iidm:busBreakerTopology>
            <iidm:generator id="gen_93_49" name="Gen_93" energySource="OTHER" minP="-4999.0" maxP="4999.0" voltageRegulatorOn="true" targetP="116.24800437966756" targetV="20.0" targetQ="0.0" bus="bus_93" connectableBus="bus_93" p="-116.24800437966756" q="22.93738280022461">
                <iidm:minMaxReactiveLimits minQ="-22.93738280022461" maxQ="51.80131295115506"/>
            </iidm:generator>
        </iidm:voltageLevel>
        <iidm:voltageLevel id="sub_94" nominalV="20.0" lowVoltageLimit="19.0" highVoltageLimit="21.0" topologyKind="BUS_BREAKER">
            <iidm:busBreakerTopology>
...